Circuit: * D:\UNIVERSITY OF MORATUWA\Semester-3\Module Details\EN2091 - Laboratory Practice and Projects\theramin\theremin new\Theramin Circuit.asc

Warning: Multiple definitions of model "2scr375p" Type: BJT
Warning: Multiple definitions of model "bc857b" Type: BJT
Warning: Multiple definitions of model "bc847c" Type: BJT
Warning: Multiple definitions of model "bc847b" Type: BJT
WARNING: Node N012 is floating.

WARNING: Less than two connections to node N012.  This node is used by C11.
Early termination of direct N-R iteration.
Direct Newton iteration failed to find .op point.  (Use ".option noopiter" to skip.)
Starting Gmin stepping
Gmin = 10
vernier = 0.5
vernier = 0.25
vernier = 0.125
vernier = 0.0625
Gmin = 8.36601
vernier = 0.03125
vernier = 0.015625
vernier = 0.0078125
Gmin = 8.23665
vernier = 0.00390625
vernier = 0.00195313
vernier = 0.000976563
vernier = 0.000488281
Gmin = 0
Gmin = 0
Gmin stepping failed

Starting source stepping with srcstepmethod=0
Source Step = 3.0303%
Source Step = 33.3333%
Source Step = 63.6364%
Source Step = 93.9394%
Source stepping succeeded in finding the operating point.


Date: Thu Oct 24 23:45:59 2024
Total elapsed time: 37.883 seconds.

tnom = 27
temp = 27
method = modified trap
totiter = 853940
traniter = 852317
tranpoints = 249983
accept = 169307
rejected = 80676
matrix size = 167
fillins = 1960
solver = Normal
Thread vector: 15.6/8.0[3] 5.3/3.4[3] 7.6/4.2[3] 1.9/2.8[1]  2592/500
Matrix Compiler1: 349.20 KB object code size  64.9/26.2/[18.6]
Matrix Compiler2: 46.34 KB object code size  11.3/6.2/[4.2]

